Circuit: * C:\Users\ryanm\OneDrive - Queen's University Belfast\Misc\projects\small_12V_car_inverter\LTspice circuits\Inverter 1 modified sine.asc

WARNING: Less than two connections to node NC_03.  This node is used by V:U1:§DT.
WARNING: Less than two connections to node NC_06.  This node is used by R2.
WARNING: Less than two connections to node NC_07.  This node is used by R3.
Direct Newton iteration failed to find .op point.  (Use ".option noopiter" to skip.)
Starting Gmin stepping
Gmin = 10
Gmin = 1.07374
Gmin = 0.115292
Gmin = 0.0123794
Gmin = 0.00132923
Gmin = 0.000142725
Gmin = 1.5325e-005
Gmin = 1.6455e-006
Gmin = 1.76685e-007
Gmin = 1.89714e-008
Gmin = 2.03704e-009
Gmin = 2.18725e-010
Gmin = 2.34854e-011
Gmin = 2.52173e-012
Gmin = 2.70769e-013
Gmin = 0
Gmin stepping succeeded in finding the operating point.

Ignoring empty pin current: Ix(ea1:1)
Ignoring empty pin current: Ix(ea1:2)
Ignoring empty pin current: Ix(ea1:3)
Ignoring empty pin current: Ix(ea1:4)
Ignoring empty pin current: Ix(ea1:5)
Ignoring empty pin current: Ix(ea2:1)
Ignoring empty pin current: Ix(ea2:2)
Ignoring empty pin current: Ix(ea2:3)
Ignoring empty pin current: Ix(ea2:4)
Ignoring empty pin current: Ix(ea2:5)
Ignoring empty pin current: Ix(u1:1)
Ignoring empty pin current: Ix(u1:2)
Ignoring empty pin current: Ix(u1:3)
Ignoring empty pin current: Ix(u1:5)
Ignoring empty pin current: Ix(u2:1)
Ignoring empty pin current: Ix(u2:2)
Ignoring empty pin current: Ix(u2:3)
Ignoring empty pin current: Ix(u2:4)
Ignoring empty pin current: Ix(u2:5)
Ignoring empty pin current: Ix(ea1:1)
Ignoring empty pin current: Ix(ea1:2)
Ignoring empty pin current: Ix(ea1:3)
Ignoring empty pin current: Ix(ea1:4)
Ignoring empty pin current: Ix(ea1:5)
Ignoring empty pin current: Ix(ea2:1)
Ignoring empty pin current: Ix(ea2:2)
Ignoring empty pin current: Ix(ea2:3)
Ignoring empty pin current: Ix(ea2:4)
Ignoring empty pin current: Ix(ea2:5)
Ignoring empty pin current: Ix(u1:1)
Ignoring empty pin current: Ix(u1:2)
Ignoring empty pin current: Ix(u1:3)
Ignoring empty pin current: Ix(u1:5)
Ignoring empty pin current: Ix(u2:1)
Ignoring empty pin current: Ix(u2:2)
Ignoring empty pin current: Ix(u2:3)
Ignoring empty pin current: Ix(u2:4)
Ignoring empty pin current: Ix(u2:5)
Heightened Def Con from 0.129844 to 0.129844

Date: Tue Mar 02 03:18:54 2021
Total elapsed time: 26.644 seconds.

tnom = 27
temp = 27
method = modified trap
totiter = 3509564
traniter = 3509150
tranpoints = 1161243
accept = 868359
rejected = 292885
matrix size = 40
fillins = 6
solver = Normal
Matrix Compiler1: 1.90 KB object code size  0.7/0.3/[0.2]
Matrix Compiler2: 3.00 KB object code size  0.3/0.5/[0.2]

