Circuit: * C:\Users\ryanm\OneDrive - Queen's University Belfast\Misc\projects\small_12V_car_inverter\LTspice circuits\low frequencyPWM generator.asc

WARNING: Less than two connections to node NC_04.  This node is used by Q:U1:2.
Direct Newton iteration failed to find .op point.  (Use ".option noopiter" to skip.)
Starting Gmin stepping
Increasing initial diagonal Gmin to 100
Gmin = 100
Gmin = 10.7374
Gmin = 1.15292
Gmin = 0.123794
Gmin = 0.0132923
Gmin = 0.00142725
Gmin = 0.00015325
Gmin = 1.6455e-005
Gmin = 1.76685e-006
Gmin = 1.89714e-007
Gmin = 2.03704e-008
Gmin = 2.18725e-009
Gmin = 2.34854e-010
Gmin = 2.52173e-011
Gmin = 2.70769e-012
Gmin = 2.90735e-013
Gmin = 0
Gmin stepping succeeded in finding the operating point.

Ignoring empty pin current: Ix(ea1:1)
Ignoring empty pin current: Ix(ea1:2)
Ignoring empty pin current: Ix(ea1:3)
Ignoring empty pin current: Ix(ea1:4)
Ignoring empty pin current: Ix(ea1:5)
Ignoring empty pin current: Ix(ea2:1)
Ignoring empty pin current: Ix(ea2:2)
Ignoring empty pin current: Ix(ea2:3)
Ignoring empty pin current: Ix(ea2:4)
Ignoring empty pin current: Ix(ea2:5)
Ignoring empty pin current: Ix(u1:1)
Ignoring empty pin current: Ix(u1:2)
Ignoring empty pin current: Ix(u1:3)
Ignoring empty pin current: Ix(u1:5)
Ignoring empty pin current: Ix(u2:1)
Ignoring empty pin current: Ix(u2:2)
Ignoring empty pin current: Ix(u2:3)
Ignoring empty pin current: Ix(u2:4)
Ignoring empty pin current: Ix(u2:5)
Ignoring empty pin current: Ix(ea1:1)
Ignoring empty pin current: Ix(ea1:2)
Ignoring empty pin current: Ix(ea1:3)
Ignoring empty pin current: Ix(ea1:4)
Ignoring empty pin current: Ix(ea1:5)
Ignoring empty pin current: Ix(ea2:1)
Ignoring empty pin current: Ix(ea2:2)
Ignoring empty pin current: Ix(ea2:3)
Ignoring empty pin current: Ix(ea2:4)
Ignoring empty pin current: Ix(ea2:5)
Ignoring empty pin current: Ix(u1:1)
Ignoring empty pin current: Ix(u1:2)
Ignoring empty pin current: Ix(u1:3)
Ignoring empty pin current: Ix(u1:5)
Ignoring empty pin current: Ix(u2:1)
Ignoring empty pin current: Ix(u2:2)
Ignoring empty pin current: Ix(u2:3)
Ignoring empty pin current: Ix(u2:4)
Ignoring empty pin current: Ix(u2:5)
Heightened Def Con from 0.0749973 ++++++++++++++++++++++to 0.0749973
Heightened Def Con from 0.236925 ++++++++++++++++++++++to 0.236925
Heightened Def Con from 0.39885 ++++++++++++++++++++++to 0.39885
Heightened Def Con from 0.560778 ++++++++++++++++++++++to 0.560778
Heightened Def Con from 0.722705 ++++++++++++++++++++++to 0.722705
Heightened Def Con from 0.884633 ++++++++++++++++++++++to 0.884633
Heightened Def Con from 1.04656 ++++++++++++++++++++++to 1.04656
Heightened Def Con from 1.20849 ++++++++++++++++++++++to 1.20849
Heightened Def Con from 1.37041 ++++++++++++++++++++++to 1.37041
Heightened Def Con from 1.53234 ++++++++++++++++++++++to 1.53234
Heightened Def Con from 1.69427 ++++++++++++++++++++++to 1.69427
Heightened Def Con from 1.85619 ++++++++++++++++++++++to 1.85619
Heightened Def Con from 2.01812 ++++++++++++++++++++++to 2.01812
Heightened Def Con from 2.18005 ++++++++++++++++++++++to 2.18005
Heightened Def Con from 2.34197 ++++++++++++++++++++++to 2.34197
Heightened Def Con from 2.5039 ++++++++++++++++++++++to 2.5039
Heightened Def Con from 2.66582 ++++++++++++++++++++++to 2.66582
Heightened Def Con from 2.82775 ++++++++++++++++++++++to 2.82775
Heightened Def Con from 2.98968 ++++++++++++++++++++++to 2.98968
Heightened Def Con from 3.1516 ++++++++++++++++++++++to 3.1516
Heightened Def Con from 3.31353 ++++++++++++++++++++++to 3.31353
Heightened Def Con from 3.47546 ++++++++++++++++++++++to 3.47546
Heightened Def Con from 3.63738 ++++++++++++++++++++++to 3.63738
Heightened Def Con from 3.79931 ++++++++++++++++++++++to 3.79931
Heightened Def Con from 3.96124 ++++++++++++++++++++++to 3.96124
Heightened Def Con from 4.12317 ++++++++++++++++++++++to 4.12317
Heightened Def Con from 4.28509 ++++++++++++++++++++++to 4.28509
Heightened Def Con from 4.44702 ++++++++++++++++++++++to 4.44702
Heightened Def Con from 4.60895 ++++++++++++++++++++++to 4.60895
Heightened Def Con from 4.77088 ++++++++++++++++++++++to 4.77088
Heightened Def Con from 4.9328 ++++++++++++++++++++++to 4.9328

Date: Tue Mar 02 20:45:51 2021
Total elapsed time: 1.448 seconds.

tnom = 27
temp = 27
method = modified trap
totiter = 165447
traniter = 164847
tranpoints = 36170
accept = 24726
rejected = 12157
matrix size = 45
fillins = 7
solver = Normal
Matrix Compiler1: 2.10 KB object code size  0.9/0.5/[0.3]
Matrix Compiler2: 3.35 KB object code size  0.4/0.5/[0.4]

