Circuit: * C:\Users\ryanm\OneDrive - Queen's University Belfast\Misc\projects\small_12V_car_inverter\LTspice circuits\mosfet driver 50Hz oscillation inductors.asc

Direct Newton iteration failed to find .op point.  (Use ".option noopiter" to skip.)
Starting Gmin stepping
Gmin = 10
Gmin = 1.07374
Gmin = 0.115292
Gmin = 0.0123794
Gmin = 0.00132923
Gmin = 0.000142725
Gmin = 1.5325e-005
Gmin = 1.6455e-006
Gmin = 1.76685e-007
Gmin = 1.89714e-008
Gmin = 2.03704e-009
Gmin = 2.18725e-010
Gmin = 2.34854e-011
Gmin = 2.52173e-012
Gmin = 2.70769e-013
Gmin = 0
Gmin stepping succeeded in finding the operating point.

Ignoring empty pin current: Ix(ea1:1)
Ignoring empty pin current: Ix(ea1:2)
Ignoring empty pin current: Ix(ea1:3)
Ignoring empty pin current: Ix(ea1:4)
Ignoring empty pin current: Ix(ea1:5)
Ignoring empty pin current: Ix(ea2:1)
Ignoring empty pin current: Ix(ea2:2)
Ignoring empty pin current: Ix(ea2:3)
Ignoring empty pin current: Ix(ea2:4)
Ignoring empty pin current: Ix(ea2:5)
Ignoring empty pin current: Ix(u1:1)
Ignoring empty pin current: Ix(u1:2)
Ignoring empty pin current: Ix(u1:3)
Ignoring empty pin current: Ix(u1:5)
Ignoring empty pin current: Ix(u2:1)
Ignoring empty pin current: Ix(u2:2)
Ignoring empty pin current: Ix(u2:3)
Ignoring empty pin current: Ix(u2:4)
Ignoring empty pin current: Ix(u2:5)
Ignoring empty pin current: Ix(ea1:1)
Ignoring empty pin current: Ix(ea1:2)
Ignoring empty pin current: Ix(ea1:3)
Ignoring empty pin current: Ix(ea1:4)
Ignoring empty pin current: Ix(ea1:5)
Ignoring empty pin current: Ix(ea2:1)
Ignoring empty pin current: Ix(ea2:2)
Ignoring empty pin current: Ix(ea2:3)
Ignoring empty pin current: Ix(ea2:4)
Ignoring empty pin current: Ix(ea2:5)
Ignoring empty pin current: Ix(u1:1)
Ignoring empty pin current: Ix(u1:2)
Ignoring empty pin current: Ix(u1:3)
Ignoring empty pin current: Ix(u1:5)
Ignoring empty pin current: Ix(u2:1)
Ignoring empty pin current: Ix(u2:2)
Ignoring empty pin current: Ix(u2:3)
Ignoring empty pin current: Ix(u2:4)
Ignoring empty pin current: Ix(u2:5)
Heightened Def Con from 3.49979e-006 to 3.51379e-006
Heightened Def Con from 3.52417e-006 to 3.52917e-006
Heightened Def Con from 3.53151e-006 to 3.53451e-006
Heightened Def Con from 3.79889e-006 to 3.80289e-006
Heightened Def Con from 4.00531e-006 to 4.01331e-006
Heightened Def Con from 4.75589e-006 to 4.75989e-006
Heightened Def Con from 1.43134e-005 to 1.43184e-005
Heightened Def Con from 1.43247e-005 to 1.43417e-005
Heightened Def Con from 1.43421e-005 to 1.43661e-005
Heightened Def Con from 1.43931e-005 to 1.43991e-005
Heightened Def Con from 1.7026e-005 to 1.7028e-005
Heightened Def Con from 2.13255e-005 to 2.13275e-005
Heightened Def Con from 0.0223143 to 0.0223143
Heightened Def Con from 0.0223143 to 0.0223143

Date: Wed Mar 03 19:10:52 2021
Total elapsed time: 73.386 seconds.

tnom = 27
temp = 27
method = modified trap
totiter = 7670053
traniter = 7669636
tranpoints = 2545261
accept = 1661290
rejected = 883985
matrix size = 57
fillins = 13
solver = Normal
Matrix Compiler1: 3.44 KB object code size  1.0/0.5/[0.3]
Matrix Compiler2: 4.54 KB object code size  0.5/0.8/[0.4]

